<?xml version="1.0" encoding="UTF-8"?>

<!-- generated on 01/08/2018 18:39:36 by Netedit Version 0.32.0
<?xml version="1.0" encoding="UTF-8"?>

<configuration xmlns:xsi="http://www.w3.org/2001/XMLSchema-instance" xsi:noNamespaceSchemaLocation="http://sumo.dlr.de/xsd/netconvertConfiguration.xsd">

    <input>
        <sumo-net-file value="C:\Users\uwicore\Documents\JUANJE\SUMO\SIMULACIONES\LEVANTE\ESCENARIOS\Alicante-Murcia\Alicante-Murcia_MW_LIMPIO_GR_CRECIENTE_beforeApril16.net.xml"/>
    </input>

    <output>
        <output-file value="C:\Users\uwicore\Documents\JUANJE\SUMO\SIMULACIONES\LEVANTE\ESCENARIOS\Alicante-Murcia\Alicante-Murcia_MW_LIMPIO_GR_CRECIENTE_beforeApril16.net.xml"/>
    </output>

    <processing>
        <no-turnarounds value="true"/>
        <offset.disable-normalization value="true"/>
        <lefthand value="false"/>
        <junctions.corner-detail value="0"/>
        <rectangular-lane-cut value="false"/>
        <walkingareas value="false"/>
    </processing>

</configuration>
-->

<net version="0.27" xmlns:xsi="http://www.w3.org/2001/XMLSchema-instance" xsi:noNamespaceSchemaLocation="http://sumo.dlr.de/xsd/net_file.xsd">

    <location netOffset="-599364.56,-4150651.08" convBoundary="45458.45,44428.19,115832.23,97435.12" origBoundary="-1.870182,37.497160,-0.376788,38.482161" projParameter="+proj=utm +zone=30 +ellps=WGS84 +datum=WGS84 +units=m +no_defs"/>

    <type id="highway.bridleway" priority="1" numLanes="1" speed="2.78" allow="pedestrian" oneway="1" width="2.00"/>
    <type id="highway.bus_guideway" priority="1" numLanes="1" speed="8.33" allow="bus" oneway="1"/>
    <type id="highway.cycleway" priority="1" numLanes="1" speed="5.56" allow="bicycle" oneway="0" width="1.00"/>
    <type id="highway.footway" priority="1" numLanes="1" speed="2.78" allow="pedestrian" oneway="1" width="2.00"/>
    <type id="highway.ford" priority="1" numLanes="1" speed="2.78" allow="army" oneway="0"/>
    <type id="highway.living_street" priority="3" numLanes="1" speed="2.78" disallow="tram rail_urban rail rail_electric ship" oneway="0"/>
    <type id="highway.motorway" priority="13" numLanes="2" speed="44.44" allow="private emergency authority army vip passenger hov taxi bus coach delivery truck trailer motorcycle evehicle custom1 custom2" oneway="1">
	<restriction vClass="trailer" speed="25"/>
	</type>
    <type id="highway.motorway_link" priority="12" numLanes="1" speed="22.22" allow="private emergency authority army vip passenger hov taxi bus coach delivery truck trailer motorcycle evehicle custom1 custom2" oneway="1"/>
    <type id="highway.path" priority="1" numLanes="1" speed="2.78" allow="bicycle pedestrian" oneway="1" width="2.00"/>
    <type id="highway.pedestrian" priority="1" numLanes="1" speed="2.78" allow="pedestrian" oneway="1" width="2.00"/>
    <type id="highway.primary" priority="9" numLanes="2" speed="27.78" disallow="tram rail_urban rail rail_electric ship" oneway="0"/>
    <type id="highway.primary_link" priority="8" numLanes="1" speed="22.22" disallow="tram rail_urban rail rail_electric ship" oneway="0"/>
    <type id="highway.raceway" priority="14" numLanes="2" speed="83.33" allow="vip" oneway="0"/>
    <type id="highway.residential" priority="4" numLanes="1" speed="13.89" disallow="tram rail_urban rail rail_electric ship" oneway="0"/>
    <type id="highway.secondary" priority="7" numLanes="2" speed="27.78" disallow="tram rail_urban rail rail_electric ship" oneway="0"/>
    <type id="highway.secondary_link" priority="6" numLanes="1" speed="22.22" disallow="tram rail_urban rail rail_electric ship" oneway="0"/>
    <type id="highway.service" priority="2" numLanes="1" speed="5.56" allow="delivery bicycle pedestrian" oneway="0"/>
    <type id="highway.services" priority="1" numLanes="1" speed="8.33" disallow="tram rail_urban rail rail_electric ship" oneway="0"/>
    <type id="highway.stairs" priority="1" numLanes="1" speed="1.39" allow="pedestrian" oneway="1" width="2.00"/>
    <type id="highway.step" priority="1" numLanes="1" speed="1.39" allow="pedestrian" oneway="1" width="2.00"/>
    <type id="highway.steps" priority="1" numLanes="1" speed="1.39" allow="pedestrian" oneway="1" width="2.00"/>
    <type id="highway.tertiary" priority="6" numLanes="1" speed="22.22" disallow="tram rail_urban rail rail_electric ship" oneway="0"/>
    <type id="highway.tertiary_link" priority="5" numLanes="1" speed="22.22" disallow="tram rail_urban rail rail_electric ship" oneway="0"/>
    <type id="highway.track" priority="1" numLanes="1" speed="5.56" disallow="tram rail_urban rail rail_electric ship" oneway="0"/>
    <type id="highway.trunk" priority="11" numLanes="2" speed="27.78" disallow="tram rail_urban rail rail_electric bicycle pedestrian ship" oneway="0"/>
    <type id="highway.trunk_link" priority="10" numLanes="1" speed="22.22" disallow="tram rail_urban rail rail_electric bicycle pedestrian ship" oneway="0"/>
    <type id="highway.unclassified" priority="5" numLanes="1" speed="13.89" disallow="tram rail_urban rail rail_electric ship" oneway="0"/>
    <type id="highway.unsurfaced" priority="1" numLanes="1" speed="8.33" disallow="tram rail_urban rail rail_electric ship" oneway="0"/>
    <type id="railway.light_rail" priority="15" numLanes="1" speed="27.78" allow="rail_urban" oneway="1"/>
    <type id="railway.preserved" priority="15" numLanes="1" speed="27.78" allow="rail" oneway="1"/>
    <type id="railway.rail" priority="15" numLanes="1" speed="83.33" allow="rail rail_electric" oneway="1"/>
    <type id="railway.subway" priority="15" numLanes="1" speed="27.78" allow="rail_urban" oneway="1"/>
    <type id="railway.tram" priority="15" numLanes="1" speed="13.89" allow="tram" oneway="1"/>

    <edge id=":13829319_0" function="internal">
        <lane id=":13829319_0_0" index="0" allow="private emergency authority army vip passenger hov taxi bus coach delivery truck trailer motorcycle evehicle custom1 custom2" speed="27.78" length="3.55" shape="62930.80,60486.66 62929.94,60486.19 62929.15,60486.21 62928.36,60486.24 62927.49,60485.77"/>
        <lane id=":13829319_0_1" index="1" allow="private emergency authority army vip passenger hov taxi bus coach delivery truck trailer motorcycle evehicle custom1 custom2" speed="27.78" length="3.55" shape="62930.80,60486.66 62930.29,60485.82 62930.29,60485.03 62930.29,60484.24 62929.78,60483.39"/>
        <lane id=":13829319_0_2" index="2" allow="private emergency authority army vip passenger hov taxi bus coach delivery truck trailer motorcycle evehicle custom1 custom2" speed="27.78" length="3.55" shape="62933.08,60484.28 62932.58,60483.43 62932.58,60482.65 62932.57,60481.86 62932.07,60481.01"/>
    </edge>
    <edge id=":13829322_0" function="internal">
        <lane id=":13829322_0_0" index="0" allow="private emergency authority army vip passenger hov taxi bus coach delivery truck trailer motorcycle evehicle custom1 custom2" speed="23.61" length="5.55" shape="65372.18,62226.37 65370.75,62225.68 65369.57,62225.61 65368.39,62225.55 65366.93,62224.89"/>
    </edge>
    <edge id=":13829322_1" function="internal">
        <lane id=":13829322_1_0" index="0" allow="private emergency authority army vip passenger hov taxi bus coach delivery truck trailer motorcycle evehicle custom1 custom2" speed="33.33" length="6.57" shape="65374.13,62223.71 65372.44,62222.80 65371.10,62222.55 65369.75,62222.29 65368.06,62221.40"/>
        <lane id=":13829322_1_1" index="1" allow="private emergency authority army vip passenger hov taxi bus coach delivery truck trailer motorcycle evehicle custom1 custom2" speed="33.33" length="6.57" shape="65376.07,62221.04 65374.38,62220.14 65373.03,62219.87 65371.68,62219.62 65369.98,62218.72"/>
    </edge>
    <edge id=":13829363_0" function="internal">
        <lane id=":13829363_0_0" index="0" allow="private emergency authority army vip passenger hov taxi bus coach delivery truck trailer motorcycle evehicle custom1 custom2" speed="27.77" length="5.78" shape="72545.99,68073.60 72544.69,68072.53 72544.04,68071.50 72543.38,68070.48 72542.04,68069.48"/>
    </edge>
    <edge id=":13829363_1" function="internal">
        <lane id=":13829363_1_0" index="0" allow="private emergency authority army vip passenger hov taxi bus coach delivery truck trailer motorcycle evehicle custom1 custom2" speed="33.33" length="6.83" shape="72548.44,68071.23 72546.87,68070.03 72546.03,68068.88 72545.20,68067.73 72543.60,68066.57"/>
        <lane id=":13829363_1_1" index="1" allow="private emergency authority army vip passenger hov taxi bus coach delivery truck trailer motorcycle evehicle custom1 custom2" speed="33.33" length="6.83" shape="72550.06,68068.35 72548.46,68067.15 72547.62,68065.98 72546.77,68064.83 72545.16,68063.66"/>
    </edge>
    <edge id=":13830113_0" function="internal">
        <lane id=":13830113_0_0" index="0" allow="private emergency authority army vip passenger hov taxi bus coach delivery truck trailer motorcycle evehicle custom1 custom2" speed="29.16" length="21.26" shape="73167.80,68491.45 73162.40,68487.35 73157.38,68484.73 73152.99,68482.80 73149.49,68480.81"/>
    </edge>
    <edge id=":13830113_1" function="internal">
        <lane id=":13830113_1_0" index="0" allow="private emergency authority army vip passenger hov taxi bus coach delivery truck trailer motorcycle evehicle custom1 custom2" speed="33.33" length="21.28" shape="73167.80,68491.45 73151.39,68478.03"/>
        <lane id=":13830113_1_1" index="1" allow="private emergency authority army vip passenger hov taxi bus coach delivery truck trailer motorcycle evehicle custom1 custom2" speed="33.33" length="21.28" shape="73170.04,68489.03 73153.51,68475.50"/>
    </edge>
    <edge id=":13832113_0" function="internal">
        <lane id=":13832113_0_0" index="0" allow="private emergency authority army vip passenger hov taxi bus coach delivery truck trailer motorcycle evehicle custom1 custom2" speed="30.56" length="0.22" shape="64849.45,61869.91 64849.36,61869.85"/>
        <lane id=":13832113_0_1" index="1" allow="private emergency authority army vip passenger hov taxi bus coach delivery truck trailer motorcycle evehicle custom1 custom2" speed="30.56" length="0.22" shape="64851.27,61867.15 64850.99,61866.98"/>
    </edge>
    <edge id=":13832323_0" function="internal">
        <lane id=":13832323_0_0" index="0" allow="private emergency authority army vip passenger hov taxi bus coach delivery truck trailer motorcycle evehicle custom1 custom2" speed="33.33" length="3.55" shape="65013.58,61976.41 65012.66,61976.09 65011.89,61976.25 65011.13,61976.42 65010.20,61976.12"/>
        <lane id=":13832323_0_1" index="1" allow="private emergency authority army vip passenger hov taxi bus coach delivery truck trailer motorcycle evehicle custom1 custom2" speed="33.33" length="3.55" shape="65015.45,61973.69 65014.52,61973.36 65013.74,61973.52 65012.96,61973.68 65012.02,61973.36"/>
    </edge>
    <edge id=":13832464_0" function="internal">
        <lane id=":13832464_0_0" index="0" allow="private emergency authority army vip passenger hov taxi bus coach delivery truck trailer motorcycle evehicle custom1 custom2" speed="27.77" length="3.16" shape="104257.72,90853.97 104256.85,90853.62 104256.25,90853.40 104255.63,90853.20 104254.74,90852.94"/>
    </edge>
    <edge id=":13832464_1" function="internal">
        <lane id=":13832464_1_0" index="0" allow="private emergency authority army vip passenger hov taxi bus coach delivery truck trailer motorcycle evehicle custom1 custom2" speed="33.33" length="2.39" shape="104257.88,90850.49 104255.66,90849.77"/>
        <lane id=":13832464_1_1" index="1" allow="private emergency authority army vip passenger hov taxi bus coach delivery truck trailer motorcycle evehicle custom1 custom2" speed="33.33" length="2.39" shape="104258.91,90847.35 104256.58,90846.60"/>
    </edge>
    <edge id=":13832493_0" function="internal">
        <lane id=":13832493_0_0" index="0" allow="private emergency authority army vip passenger hov taxi bus coach delivery truck trailer motorcycle evehicle custom1 custom2" speed="25.00" length="9.83" shape="88262.03,77068.44 88260.07,77066.31 88258.47,77065.10 88256.83,77063.91 88254.78,77061.86"/>
    </edge>
    <edge id=":13832493_1" function="internal">
        <lane id=":13832493_1_0" index="0" allow="private emergency authority army vip passenger hov taxi bus coach delivery truck trailer motorcycle evehicle custom1 custom2" speed="33.33" length="10.15" shape="88264.63,77066.41 88262.59,77064.21 88260.91,77062.96 88259.25,77061.71 88257.23,77059.50"/>
        <lane id=":13832493_1_1" index="1" allow="private emergency authority army vip passenger hov taxi bus coach delivery truck trailer motorcycle evehicle custom1 custom2" speed="33.33" length="10.15" shape="88267.23,77064.37 88265.20,77062.19 88263.52,77060.94 88261.86,77059.70 88259.85,77057.49"/>
    </edge>
    <edge id=":204897487_0" function="internal">
        <lane id=":204897487_0_0" index="0" allow="private emergency authority army vip passenger hov taxi bus coach delivery truck trailer motorcycle evehicle custom1 custom2" speed="25.00" length="5.92" shape="115351.15,95946.28 115348.50,95940.99"/>
    </edge>
    <edge id=":204897487_1" function="internal">
        <lane id=":204897487_1_0" index="0" allow="private emergency authority army vip passenger hov taxi bus coach delivery truck trailer motorcycle evehicle custom1 custom2" speed="33.33" length="5.85" shape="115354.17,95944.97 115352.03,95939.57"/>
        <lane id=":204897487_1_1" index="1" allow="private emergency authority army vip passenger hov taxi bus coach delivery truck trailer motorcycle evehicle custom1 custom2" speed="33.33" length="5.85" shape="115357.20,95943.65 115355.01,95938.17"/>
    </edge>
    <edge id=":231212829_0" function="internal">
        <lane id=":231212829_0_0" index="0" allow="private emergency authority army vip passenger hov taxi bus coach delivery truck trailer motorcycle evehicle custom1 custom2" speed="27.77" length="4.66" shape="115203.83,95681.32 115203.28,95680.41 115202.83,95679.81 115202.29,95679.31 115201.43,95678.67"/>
        <lane id=":231212829_0_1" index="1" allow="private emergency authority army vip passenger hov taxi bus coach delivery truck trailer motorcycle evehicle custom1 custom2" speed="27.77" length="4.66" shape="115206.68,95679.64 115205.59,95678.74 115204.35,95678.89 115202.97,95679.16 115201.43,95678.67"/>
    </edge>
    <edge id=":231212829_2" function="internal">
        <lane id=":231212829_2_0" index="0" allow="private emergency authority army vip passenger hov taxi bus coach delivery truck trailer motorcycle evehicle custom1 custom2" speed="33.33" length="3.05" shape="115206.68,95679.64 115205.27,95676.94"/>
        <lane id=":231212829_2_1" index="1" allow="private emergency authority army vip passenger hov taxi bus coach delivery truck trailer motorcycle evehicle custom1 custom2" speed="33.33" length="3.05" shape="115209.52,95677.97 115208.11,95675.26"/>
    </edge>
    <edge id=":241897724_0" function="internal">
        <lane id=":241897724_0_0" index="0" allow="private emergency authority army vip passenger hov taxi bus coach delivery truck trailer motorcycle evehicle custom1 custom2" speed="19.45" length="0.10" shape="112863.51,92206.31 112863.51,92206.31"/>
    </edge>
    <edge id=":2433743181_0" function="internal">
        <lane id=":2433743181_0_0" index="0" allow="private emergency authority army vip passenger hov taxi bus coach delivery truck trailer motorcycle evehicle custom1 custom2" speed="33.33" length="3.55" shape="51104.28,48205.72 51103.43,48205.22 51102.64,48205.23 51101.85,48205.24 51101.00,48204.74"/>
        <lane id=":2433743181_0_1" index="1" allow="private emergency authority army vip passenger hov taxi bus coach delivery truck trailer motorcycle evehicle custom1 custom2" speed="33.33" length="3.55" shape="51106.63,48203.40 51105.78,48202.90 51104.99,48202.91 51104.20,48202.92 51103.35,48202.42"/>
    </edge>
    <edge id=":2433743243_0" function="internal">
        <lane id=":2433743243_0_0" index="0" allow="private emergency authority army vip passenger hov taxi bus coach delivery truck trailer motorcycle evehicle custom1 custom2" speed="33.33" length="3.46" shape="53233.53,50825.79 53232.64,50825.37 53231.85,50825.43 53231.07,50825.50 53230.19,50825.06"/>
        <lane id=":2433743243_0_1" index="1" allow="private emergency authority army vip passenger hov taxi bus coach delivery truck trailer motorcycle evehicle custom1 custom2" speed="33.33" length="3.46" shape="53235.68,50823.28 53232.38,50822.60"/>
    </edge>
    <edge id=":2433743304_0" function="internal">
        <lane id=":2433743304_0_0" index="0" allow="private emergency authority army vip passenger hov taxi bus coach delivery truck trailer motorcycle evehicle custom1 custom2" speed="33.33" length="3.51" shape="59462.71,56570.27 59461.80,56570.02 59461.06,56570.25 59460.32,56570.48 59459.39,56570.27"/>
        <lane id=":2433743304_0_1" index="1" allow="private emergency authority army vip passenger hov taxi bus coach delivery truck trailer motorcycle evehicle custom1 custom2" speed="33.33" length="3.51" shape="59464.41,56567.44 59463.46,56567.17 59462.70,56567.38 59461.93,56567.61 59460.97,56567.37"/>
    </edge>
    <edge id=":2433743491_0" function="internal">
        <lane id=":2433743491_0_0" index="0" allow="private emergency authority army vip passenger hov taxi bus coach delivery truck trailer motorcycle evehicle custom1 custom2" speed="33.33" length="3.35" shape="55622.46,56317.02 55619.22,56316.00"/>
        <lane id=":2433743491_0_1" index="1" allow="private emergency authority army vip passenger hov taxi bus coach delivery truck trailer motorcycle evehicle custom1 custom2" speed="33.33" length="3.35" shape="55624.82,56314.72 55621.65,56313.77"/>
    </edge>
    <edge id=":2433743499_0" function="internal">
        <lane id=":2433743499_0_0" index="0" allow="private emergency authority army vip passenger hov taxi bus coach delivery truck trailer motorcycle evehicle custom1 custom2" speed="33.33" length="3.55" shape="54560.00,53990.29 54559.45,53989.47 54558.74,53989.13 54558.03,53988.79 54557.48,53987.97"/>
        <lane id=":2433743499_0_1" index="1" allow="private emergency authority army vip passenger hov taxi bus coach delivery truck trailer motorcycle evehicle custom1 custom2" speed="33.33" length="3.55" shape="54563.13,53989.24 54562.58,53988.42 54561.87,53988.08 54561.15,53987.74 54560.61,53986.92"/>
    </edge>
    <edge id=":2442968027_0" function="internal">
        <lane id=":2442968027_0_0" index="0" allow="private emergency authority army vip passenger hov taxi bus coach delivery truck trailer motorcycle evehicle custom1 custom2" speed="33.33" length="2.67" shape="67756.92,65086.25 67754.17,65085.57"/>
        <lane id=":2442968027_0_1" index="1" allow="private emergency authority army vip passenger hov taxi bus coach delivery truck trailer motorcycle evehicle custom1 custom2" speed="33.33" length="2.67" shape="67759.29,65083.96 67756.80,65083.58"/>
    </edge>
    <edge id=":2442968046_0" function="internal">
        <lane id=":2442968046_0_0" index="0" allow="private emergency authority army vip passenger hov taxi bus coach delivery truck trailer motorcycle evehicle custom1 custom2" speed="33.33" length="3.34" shape="70376.70,67313.14 70373.43,67314.04"/>
        <lane id=":2442968046_0_1" index="1" allow="private emergency authority army vip passenger hov taxi bus coach delivery truck trailer motorcycle evehicle custom1 custom2" speed="33.33" length="3.34" shape="70377.42,67309.92 70374.27,67310.85"/>
    </edge>
    <edge id=":2450600561_0" function="internal">
        <lane id=":2450600561_0_0" index="0" allow="private emergency authority army vip passenger hov taxi bus coach delivery truck trailer motorcycle evehicle custom1 custom2" speed="22.23" length="9.17" shape="80392.03,71836.28 80389.71,71834.93 80387.96,71834.32 80386.10,71833.97 80383.43,71833.36"/>
    </edge>
    <edge id=":2450600561_1" function="internal">
        <lane id=":2450600561_1_0" index="0" allow="private emergency authority army vip passenger hov taxi bus coach delivery truck trailer motorcycle evehicle custom1 custom2" speed="33.33" length="9.66" shape="80393.87,71833.54 80391.36,71832.23 80389.43,71831.76 80387.48,71831.32 80384.91,71830.10"/>
        <lane id=":2450600561_1_1" index="1" allow="private emergency authority army vip passenger hov taxi bus coach delivery truck trailer motorcycle evehicle custom1 custom2" speed="33.33" length="9.66" shape="80395.70,71830.79 80393.19,71829.48 80391.26,71829.01 80389.31,71828.57 80386.75,71827.35"/>
    </edge>
    <edge id=":2450600835_0" function="internal">
        <lane id=":2450600835_0_0" index="0" allow="private emergency authority army vip passenger hov taxi bus coach delivery truck trailer motorcycle evehicle custom1 custom2" speed="27.77" length="6.54" shape="78497.92,70563.62 78496.77,70562.05 78496.11,70560.85 78495.34,70559.77 78493.88,70558.54"/>
    </edge>
    <edge id=":2450600835_1" function="internal">
        <lane id=":2450600835_1_0" index="0" allow="private emergency authority army vip passenger hov taxi bus coach delivery truck trailer motorcycle evehicle custom1 custom2" speed="33.33" length="7.14" shape="78500.61,70561.03 78499.02,70559.66 78498.18,70558.44 78497.34,70557.22 78495.76,70555.83"/>
        <lane id=":2450600835_1_1" index="1" allow="private emergency authority army vip passenger hov taxi bus coach delivery truck trailer motorcycle evehicle custom1 custom2" speed="33.33" length="7.14" shape="78502.46,70558.29 78500.88,70556.93 78500.04,70555.72 78499.21,70554.50 78497.64,70553.12"/>
    </edge>
    <edge id=":2451789700_0" function="internal">
        <lane id=":2451789700_0_0" index="0" allow="private emergency authority army vip passenger hov taxi bus coach delivery truck trailer motorcycle evehicle custom1 custom2" speed="27.77" length="7.39" shape="91338.13,81255.03 91337.33,81252.98 91336.80,81251.53 91336.04,81250.24 91334.57,81248.66"/>
    </edge>
    <edge id=":2451789700_1" function="internal">
        <lane id=":2451789700_1_0" index="0" allow="private emergency authority army vip passenger hov taxi bus coach delivery truck trailer motorcycle evehicle custom1 custom2" speed="33.33" length="8.03" shape="91341.19,81252.91 91339.71,81251.09 91339.03,81249.57 91338.34,81248.06 91336.84,81246.26"/>
        <lane id=":2451789700_1_1" index="1" allow="private emergency authority army vip passenger hov taxi bus coach delivery truck trailer motorcycle evehicle custom1 custom2" speed="33.33" length="8.03" shape="91343.49,81250.55 91342.00,81248.71 91341.31,81247.19 91340.61,81245.67 91339.11,81243.86"/>
    </edge>
    <edge id=":2451789804_0" function="internal">
        <lane id=":2451789804_0_0" index="0" allow="private emergency authority army vip passenger hov taxi bus coach delivery truck trailer motorcycle evehicle custom1 custom2" speed="27.77" length="13.60" shape="85604.69,75071.77 85602.15,75069.68 85599.98,75067.81 85597.42,75065.92 85593.72,75063.82"/>
    </edge>
    <edge id=":2451789804_1" function="internal">
        <lane id=":2451789804_1_0" index="0" allow="private emergency authority army vip passenger hov taxi bus coach delivery truck trailer motorcycle evehicle custom1 custom2" speed="33.33" length="13.95" shape="85606.55,75068.86 85603.04,75066.72 85600.88,75064.85 85598.72,75062.99 85595.20,75060.87"/>
        <lane id=":2451789804_1_1" index="1" allow="private emergency authority army vip passenger hov taxi bus coach delivery truck trailer motorcycle evehicle custom1 custom2" speed="33.33" length="13.95" shape="85608.09,75065.94 85604.56,75063.79 85602.39,75061.92 85600.22,75060.05 85596.68,75057.93"/>
    </edge>
    <edge id=":2451789953_0" function="internal">
        <lane id=":2451789953_0_0" index="0" allow="private emergency authority army vip passenger hov taxi bus coach delivery truck trailer motorcycle evehicle custom1 custom2" speed="27.77" length="6.51" shape="85328.36,74923.30 85327.33,74921.66 85326.61,74920.51 85325.71,74919.55 85324.14,74918.48"/>
    </edge>
    <edge id=":2451789953_1" function="internal">
        <lane id=":2451789953_1_0" index="0" allow="private emergency authority army vip passenger hov taxi bus coach delivery truck trailer motorcycle evehicle custom1 custom2" speed="33.33" length="7.13" shape="85330.95,74920.54 85329.29,74919.27 85328.39,74918.10 85327.49,74916.92 85325.83,74915.64"/>
        <lane id=":2451789953_1_1" index="1" allow="private emergency authority army vip passenger hov taxi bus coach delivery truck trailer motorcycle evehicle custom1 custom2" speed="33.33" length="7.13" shape="85332.62,74917.70 85330.97,74916.44 85330.07,74915.26 85329.17,74914.09 85327.53,74912.81"/>
    </edge>
    <edge id=":2451790311_0" function="internal">
        <lane id=":2451790311_0_0" index="0" allow="private emergency authority army vip passenger hov taxi bus coach delivery truck trailer motorcycle evehicle custom1 custom2" speed="19.45" length="0.10" shape="85723.62,75143.11 85723.62,75143.11"/>
    </edge>
    <edge id=":2451790562_0" function="internal">
        <lane id=":2451790562_0_0" index="0" allow="private emergency authority army vip passenger hov taxi bus coach delivery truck trailer motorcycle evehicle custom1 custom2" speed="19.45" length="0.10" shape="88182.64,76997.24 88182.64,76997.24"/>
    </edge>
    <edge id=":2452567914_0" function="internal">
        <lane id=":2452567914_0_0" index="0" allow="private emergency authority army vip passenger hov taxi bus coach delivery truck trailer motorcycle evehicle custom1 custom2" speed="20.84" length="1.12" shape="94072.71,83217.27 94072.73,83216.15"/>
    </edge>
    <edge id=":2452567914_1" function="internal">
        <lane id=":2452567914_1_0" index="0" allow="private emergency authority army vip passenger hov taxi bus coach delivery truck trailer motorcycle evehicle custom1 custom2" speed="33.33" length="0.56" shape="94075.64,83215.76 94075.98,83215.27"/>
        <lane id=":2452567914_1_1" index="1" allow="private emergency authority army vip passenger hov taxi bus coach delivery truck trailer motorcycle evehicle custom1 custom2" speed="33.33" length="0.56" shape="94078.58,83214.24 94078.94,83213.82"/>
        <lane id=":2452567914_1_2" index="2" allow="private emergency authority army vip passenger hov taxi bus coach delivery truck trailer motorcycle evehicle custom1 custom2" speed="33.33" length="0.56" shape="94081.51,83212.73 94081.90,83212.37"/>
    </edge>
    <edge id=":2461520220_0" function="internal">
        <lane id=":2461520220_0_0" index="0" allow="private emergency authority army vip passenger hov taxi bus coach delivery truck trailer motorcycle evehicle custom1 custom2" speed="33.33" length="2.55" shape="98114.99,88611.10 98113.46,88608.72"/>
        <lane id=":2461520220_0_1" index="1" allow="private emergency authority army vip passenger hov taxi bus coach delivery truck trailer motorcycle evehicle custom1 custom2" speed="33.33" length="2.55" shape="98117.63,88609.12 98116.26,88606.97"/>
        <lane id=":2461520220_0_2" index="2" allow="private emergency authority army vip passenger hov taxi bus coach delivery truck trailer motorcycle evehicle custom1 custom2" speed="33.33" length="2.55" shape="98120.27,88607.14 98119.06,88605.22"/>
    </edge>
    <edge id=":2461520558_0" function="internal">
        <lane id=":2461520558_0_0" index="0" allow="private emergency authority army vip passenger hov taxi bus coach delivery truck trailer motorcycle evehicle custom1 custom2" speed="15.28" length="2.89" shape="100121.98,89417.64 100119.57,89416.04"/>
    </edge>
    <edge id=":2461520558_1" function="internal">
        <lane id=":2461520558_1_0" index="0" allow="private emergency authority army vip passenger hov taxi bus coach delivery truck trailer motorcycle evehicle custom1 custom2" speed="27.78" length="3.00" shape="100123.97,89415.00 100121.68,89413.14"/>
        <lane id=":2461520558_1_1" index="1" allow="private emergency authority army vip passenger hov taxi bus coach delivery truck trailer motorcycle evehicle custom1 custom2" speed="27.78" length="3.00" shape="100125.96,89412.37 100123.63,89410.47"/>
        <lane id=":2461520558_1_2" index="2" allow="private emergency authority army vip passenger hov taxi bus coach delivery truck trailer motorcycle evehicle custom1 custom2" speed="27.78" length="3.00" shape="100127.95,89409.74 100125.57,89407.81"/>
    </edge>
    <edge id=":2462939999_0" function="internal">
        <lane id=":2462939999_0_0" index="0" allow="private emergency authority army vip passenger hov taxi bus coach delivery truck trailer motorcycle evehicle custom1 custom2" speed="16.66" length="3.78" shape="104389.21,90901.32 104388.12,90901.07 104387.36,90900.94 104386.60,90900.86 104385.48,90900.77"/>
    </edge>
    <edge id=":2462939999_1" function="internal">
        <lane id=":2462939999_1_0" index="0" allow="private emergency authority army vip passenger hov taxi bus coach delivery truck trailer motorcycle evehicle custom1 custom2" speed="22.22" length="5.77" shape="104389.98,90898.11 104388.31,90897.73 104387.16,90897.47 104386.04,90897.15 104384.43,90896.57"/>
    </edge>
    <edge id=":2462940276_0" function="internal">
        <lane id=":2462940276_0_0" index="0" allow="private emergency authority army vip passenger hov taxi bus coach delivery truck trailer motorcycle evehicle custom1 custom2" speed="30.56" length="0.28" shape="102091.29,90218.55 102090.95,90218.46"/>
        <lane id=":2462940276_0_1" index="1" allow="private emergency authority army vip passenger hov taxi bus coach delivery truck trailer motorcycle evehicle custom1 custom2" speed="30.56" length="0.28" shape="102092.08,90215.34 102091.82,90215.27"/>